*KEYWORD
$* LS-DYNA Keyword file: LSTC LS-PRE/POST Ver 1.0(Beta)- 31OCT2002(1553)
$* Total Number of Nodes  =     5185,Largest node ID  = 1004160
$* Total Number of Shells =      960,Largest Shell ID = 960
$* Total Number of Parts  =        3,Largest Part ID  = 101
$* Total Number of Mats   =        3 Largest Mat ID   = 3
*TITLE
SPH / TP 3 Bird Impact                                                          
*CONTROL_CONTACT
$*  slsfac    rwpnal    islchk    shlthk    penopt    thkchg     orien    enmass
       0.0       0.0         0         2         0         1
$*  usrstr    usrfrc     nsbcs    interm     xpene     ssthk      ecdt   tiedprj
         0         0         0         0       0.0
$*   sfric     dfric       edc       vfc        th     th_sf    pen_sf    
       0.0       0.0       0.0       0.0       0.0       0.0       0.0
*CONTROL_ENERGY
$*    hgen      rwen    slnten     rylen     
         2         2         2         1
*CONTROL_HOURGLASS
$*     ihq        qh        
         4  0.400000
*CONTROL_SHELL
$*  wrpang     esort     irnxx    istupd    theory       bwc     miter      proj
  20.00000         2        -2         1        11         2         1
*CONTROL_SPH
$
$$$$$$$$$$$$$$$$$$$$$$$$$$$$$$$   *CONTROL_SPH  $$$$$$$$$$$$$$$$$$$$$$$$$$$$$$$$
$
$*    ncbs     boxid        dt       dim    memory      form     start      maxv
         1       101       0.0         0         0         0       0.0       0.0
*CONTROL_TERMINATION
$*  endtim    endcyc     dtmin    endeng    endmas    
  0.001000         0       0.0       0.0       0.0
*CONTROL_TIMESTEP
$*  dtinit    tssfac      isdo    tslimt     dt2ms      lctm     erode     ms1st
       0.0  0.600000         0       0.0       0.0
*DATABASE_GLSTAT
9.9998e-06
*DATABASE_MATSUM
9.9998e-06
*DATABASE_RBDOUT
9.9998e-06
*DATABASE_BINARY_D3PLOT
1.0000e-05
*DATABASE_EXTENT_BINARY
         0         0         5
         0         0         0         0         0         0         0
*CONTACT_AUTOMATIC_NODES_TO_SURFACE_TITLE
$*     cidtitle                                                                 
         1                                                                      
$*    ssid      msid     sstyp     mstyp    sboxid    mboxid       spr       mpr
       101         1         4         2
$*      fs        fd        dc        vc       vdc    penchk        bt        dt
       0.0       0.0       0.0       0.0       0.0         0       0.0       0.0
$*     sfs       sfm       sst       mst      sfst      sfmt       fsf       vsf
       0.0       0.0       0.0       0.0       0.0       0.0       0.0       0.0
$*    soft    sofscl    lcidab    maxpar      edge     depth     bsort    frcfrq
         1  0.100000         0       0.0       0.0         0         3
*SET_NODE_LIST_GENERATE
       101       0.0       0.0       0.0       0.0
   1000001   1004160
*DEFINE_BOX
       101  0.560000  0.750000 -0.220000 -0.068000 -0.049000  0.250000
*DEFINE_CURVE
         1         0       0.0       0.0       0.0       0.0
                 0.0        -546.6400146
         1000.000000        -546.6400146
*DEFINE_CURVE
         2         0  1.000000  1.000000       0.0       0.0
                 0.0       1.1000000e+09
          0.01000000       1.1700000e+09
          0.04000000       1.2400000e+09
          0.06000000       1.3000000e+09
          0.09000000       1.4000000e+09
          0.11000000       1.4700000e+09
          0.14000000       1.5700000e+09
          0.15000001       1.6000000e+09
*ELEMENT_SHELL
       1       1       1     274     786     277
       2       1     274       2     275     786
       3       1     786     275      15     276
       4       1     277     786     276      14
       5       1       2     278     787     275
       6       1     278       3     279     787
       7       1     787     279      16     280
       8       1     275     787     280      15
       9       1       3     281     788     279
      10       1     281       4     282     788
      11       1     788     282      17     283
      12       1     279     788     283      16
      13       1       4     284     789     282
      14       1     284       5     285     789
      15       1     789     285      18     286
      16       1     282     789     286      17
      17       1       5     287     790     285
      18       1     287       6     288     790
      19       1     790     288      19     289
      20       1     285     790     289      18
$ ... 940 like lines cut
*ELEMENT_SPH
 1000001     101   9.9999997e-05
 1000002     101   9.9999997e-05
 1000003     101   9.9999997e-05
 1000004     101   9.9999997e-05
 1000005     101   9.9999997e-05
 1000006     101   9.9999997e-05
 1000007     101   9.9999997e-05
 1000008     101   9.9999997e-05
 1000009     101   9.9999997e-05
 1000010     101   9.9999997e-05
 1000011     101   9.9999997e-05
 1000012     101   9.9999997e-05
 1000013     101   9.9999997e-05
 1000014     101   9.9999997e-05
 1000015     101   9.9999997e-05
 1000016     101   9.9999997e-05
 1000017     101   9.9999997e-05
 1000018     101   9.9999997e-05
 1000019     101   9.9999997e-05
 1000020     101   9.9999997e-05
$ ... 4140 like lines cut
*NODE
       1      0.22000009   2.6755167e-08   7.5455752e-08
       2      0.21926580      0.00895004      0.01985030
       3      0.21865889      0.01634795      0.04034565
       4      0.21818297      0.02214892      0.06136183
       5      0.21784095      0.02631778      0.08277144
       6      0.21763495      0.02882925      0.10444466
       7      0.21756610      0.02966810      0.12625009
       8      0.21763495      0.02882924      0.14805552
       9      0.21784095      0.02631777      0.16972879
      10      0.21818297      0.02214890      0.19113839
      11      0.21865889      0.01634792      0.21215454
      12      0.21926580      0.00895000      0.23264992
      13      0.22000009  -2.4729532e-08      0.25250012
      14      0.25255603     -0.00566855   4.5197402e-04
      15      0.25196958      0.00376865      0.02028329
      16      0.25145918      0.01173766      0.04072528
      17      0.25107324      0.01818960      0.06166208
      18      0.25081450      0.02309106      0.08297265
      19      0.25068498      0.02641804      0.10453369
      20      0.25068581      0.02815606      0.12622036
$ ... 1005 like lines cut
$
$$$$$$$$$$$$$$$$$$$$$$$$$$$$$$$$$$$$$$$$$$$$$$$$$$$$$$$$$$$$$$$$$$$$$$$$$$$$$$$$
$$$$$$$$$$$$$$$$$$$$$$$$$$$$$$$$$$$$$$$$$$$$$$$$$$$$$$$$$$$$$$$$$$$$$$$$$$$$$$$$
$
$$$$   NODES AND ELEMENTS & INITIAL VELOCITY
$
$$$$$$$$$$$$$$$$$$$$$$$$$$$$$$$$$$$$$$$$$$$$$$$$$$$$$$$$$$$$$$$$$$$$$$$$$$$$$$$$
$$$$$$$$$$$$$$$$$$$$$$$$$$$$$$$$$$$$$$$$$$$$$$$$$$$$$$$$$$$$$$$$$$$$$$$$$$$$$$$$
$
 1000001      0.63890004     -0.17290001     -0.04800000
 1000002      0.64390004     -0.17290001     -0.04800000
 1000003      0.64890003     -0.17290001     -0.04800000
 1000004      0.65390003     -0.17290001     -0.04800000
 1000005      0.65890002     -0.17290001     -0.04800000
 1000006      0.66390002     -0.17289999     -0.04800000
 1000007      0.62890005     -0.16790001     -0.04800000
 1000008      0.63390005     -0.16790001     -0.04800000
 1000009      0.63890004     -0.16790001     -0.04800000
 1000010      0.64390004     -0.16790001     -0.04800000
 1000011      0.64890003     -0.16790001     -0.04800000
 1000012      0.65390003     -0.16790001     -0.04800000
 1000013      0.65890002     -0.16790001     -0.04800000
 1000014      0.66390002     -0.16790000     -0.04800000
 1000015      0.66890001     -0.16790001     -0.04800000
 1000016      0.67390007     -0.16790001     -0.04800000
 1000017      0.62390000     -0.16290000     -0.04800000
 1000018      0.62890005     -0.16290002     -0.04800000
 1000019      0.63390005     -0.16290002     -0.04800000
 1000020      0.63890004     -0.16290002     -0.04800000
$ ... 4140 like lines cut
*INITIAL_VELOCITY_NODE
   1000001       0.0       0.0  100.0000       0.0       0.0       0.0
   1000002       0.0       0.0  100.0000       0.0       0.0       0.0
   1000003       0.0       0.0  100.0000       0.0       0.0       0.0
   1000004       0.0       0.0  100.0000       0.0       0.0       0.0
   1000005       0.0       0.0  100.0000       0.0       0.0       0.0
   1000006       0.0       0.0  100.0000       0.0       0.0       0.0
   1000007       0.0       0.0  100.0000       0.0       0.0       0.0
   1000008       0.0       0.0  100.0000       0.0       0.0       0.0
   1000009       0.0       0.0  100.0000       0.0       0.0       0.0
   1000010       0.0       0.0  100.0000       0.0       0.0       0.0
   1000011       0.0       0.0  100.0000       0.0       0.0       0.0
   1000012       0.0       0.0  100.0000       0.0       0.0       0.0
   1000013       0.0       0.0  100.0000       0.0       0.0       0.0
   1000014       0.0       0.0  100.0000       0.0       0.0       0.0
   1000015       0.0       0.0  100.0000       0.0       0.0       0.0
   1000016       0.0       0.0  100.0000       0.0       0.0       0.0
   1000017       0.0       0.0  100.0000       0.0       0.0       0.0
   1000018       0.0       0.0  100.0000       0.0       0.0       0.0
   1000019       0.0       0.0  100.0000       0.0       0.0       0.0
   1000020       0.0       0.0  100.0000       0.0       0.0       0.0
$ ... 4140 like lines cut
$#     NID        VX        VY        VZ       VXR       VYR       VZR
         1  2.585000 -114.4000       0.0       0.0       0.0       0.0
$#     NID        VX        VY        VZ       VXR       VYR       VZR
         2  7.426000 -113.6000       0.0       0.0       0.0       0.0
$#     NID        VX        VY        VZ       VXR       VYR       VZR
         3  11.43000 -113.0000       0.0       0.0       0.0       0.0
$#     NID        VX        VY        VZ       VXR       VYR       VZR
         4  14.56000 -112.5000       0.0       0.0       0.0       0.0
$#     NID        VX        VY        VZ       VXR       VYR       VZR
         5  16.82000 -112.1000       0.0       0.0       0.0       0.0
$#     NID        VX        VY        VZ       VXR       VYR       VZR
         6  18.18000 -111.9000       0.0       0.0       0.0       0.0
$#     NID        VX        VY        VZ       VXR       VYR       VZR
         7  18.63000 -111.8000       0.0       0.0       0.0       0.0
$#     NID        VX        VY        VZ       VXR       VYR       VZR
         8  18.18000 -111.9000       0.0       0.0       0.0       0.0
$#     NID        VX        VY        VZ       VXR       VYR       VZR
         9  16.82000 -112.1000       0.0       0.0       0.0       0.0
$#     NID        VX        VY        VZ       VXR       VYR       VZR
        10  14.56000 -112.5000       0.0       0.0       0.0       0.0
$#     NID        VX        VY        VZ       VXR       VYR       VZR
        11  11.43000 -113.0000       0.0       0.0       0.0       0.0
$#     NID        VX        VY        VZ       VXR       VYR       VZR
        12  7.426000 -113.6000       0.0       0.0       0.0       0.0
$#     NID        VX        VY        VZ       VXR       VYR       VZR
        13  2.585000 -114.4000       0.0       0.0       0.0       0.0
$#     NID        VX        VY        VZ       VXR       VYR       VZR
        14  1.970000 -131.2000       0.0       0.0       0.0       0.0
$#     NID        VX        VY        VZ       VXR       VYR       VZR
        15  6.803000 -130.3000       0.0       0.0       0.0       0.0
$#     NID        VX        VY        VZ       VXR       VYR       VZR
        16  10.88000 -129.6000       0.0       0.0       0.0       0.0
$#     NID        VX        VY        VZ       VXR       VYR       VZR
        17  14.20000 -129.0000       0.0       0.0       0.0       0.0
$#     NID        VX        VY        VZ       VXR       VYR       VZR
        18  16.71000 -128.7000       0.0       0.0       0.0       0.0
$#     NID        VX        VY        VZ       VXR       VYR       VZR
        19  18.39000 -128.5000       0.0       0.0       0.0       0.0
$#     NID        VX        VY        VZ       VXR       VYR       VZR
        20  19.22000 -128.4000       0.0       0.0       0.0       0.0
$ ... 2010 like lines cut
*CONSTRAINED_EXTRA_NODES_SET
         2         1
*SET_NODE_LIST
         1       0.0       0.0       0.0       0.0
         1         2         3         4         5         6         7         8
         9        10        11        12        13       274       278       281
       284       287       290       293       296       299       302       305
       308
*BOUNDARY_PRESCRIBED_MOTION_RIGID
$
$$$$$$$$$$$$$$$$$$$$$$$$$$$$$$$$$$$$$$$$$$$$$$$$$$$$$$$$$$$$$$$$$$$$$$$$$$$$$$$$
$$$$$$$$$$$$$$$$$$$$$$$$$$$$$$$$$$$$$$$$$$$$$$$$$$$$$$$$$$$$$$$$$$$$$$$$$$$$$$$$
$
$$$$     LOADING
$
$$$$$$$$$$$$$$$$$$$$$$$$$$$$$$$$$$$$$$$$$$$$$$$$$$$$$$$$$$$$$$$$$$$$$$$$$$$$$$$$
$$$$$$$$$$$$$$$$$$$$$$$$$$$$$$$$$$$$$$$$$$$$$$$$$$$$$$$$$$$$$$$$$$$$$$$$$$$$$$$$
$
$*     pid       dof       vad      lcid        sf       vid     death     birth
         2         7         0         1  1.000000         0       0.0       0.0
*PART
$* title                                                                        
                                                                                
$*     pid     secid       mid     eosid      hgid      grav    adpopt      tmid
         1         1         1
*SECTION_SHELL
$*   secid    elform      shrf       nip     propt   qr/irid     icomp     setyp
         1        11       0.0         5         0       0.0
$*      t1        t2        t3        t4      nloc     marea     
  0.003000  0.003000  0.003000  0.003000         0       0.0
*MAT_PIECEWISE_LINEAR_PLASTICITY
$*     mid        ro         e        pr      sigy      etan      fail      tdel
         1  4000.0002.0000e+11  0.300000  1.000000       0.0       0.0       0.0
$*       c         p      lcss      lcsr        vp        
       0.0       0.0         2         0       0.0
$*    eps1      eps2      eps3      eps4      eps5      eps6      eps7      eps8
       0.0       0.0       0.0       0.0       0.0       0.0       0.0       0.0
$*     es1       es2       es3       es4       es5       es6       es7       es8
       0.0       0.0       0.0       0.0       0.0       0.0       0.0       0.0
*PART_INERTIA
$* title                                                                        
                                                                                
$*     pid     secid       mid     eosid      hgid      grav    adpopt      tmid
         2         2         2
$*      xc        yc        zc        tm      ircs    nodeid    
       0.0       0.0  0.125947  0.130000
$*     ixx       ixy       ixz       iyy       iyz       izz       
  0.0013833.3715e-041.1187e-079.3520e-04-1.491e-076.9611e-04
$*     vtx       vty       vtz       vrx       vry       vrz       
       0.0       0.0       0.0       0.0       0.0 -546.6000
*SECTION_SHELL
$*   secid    elform      shrf       nip     propt   qr/irid     icomp     setyp
         2        11       0.0         5         0       0.0
$*      t1        t2        t3        t4      nloc     marea     
  0.003000  0.003000  0.003000  0.003000         0       0.0
*MAT_RIGID
$*     mid        ro         e        pr         n    couple         malias     
         2  4000.0002.0000e+11  0.300000       0.0       0.0       0.0          
$*     cmo      con1      con2      
  1.000000  7.000000  4.000000
$lco or a1        a2        a3        v1        v2        v3        
       0.0       0.0       0.0       0.0       0.0       0.0
*PART
$
$$$$$$$$$$$$$$$$$$$$$$$$$$$$$$$$ SPH PART    $$$$$$$$$$$$$$$$$$$$$$$$$$$$$$$$$$$
$
$* title                                                                        
                                                                                
$*     pid     secid       mid     eosid      hgid      grav    adpopt      tmid
       101       101         3         1
*SECTION_SPH
$
$$$$$$$$$$$$$$$$$$$$$$$$$$$$$$$$   *SECTION_SPH $$$$$$$$$$$$$$$$$$$$$$$$$$$$$$$$
$
$*   secid      cslh      hmin      hmax    sphini     death     start     
       101  1.200000  0.200000  2.000000       0.0       0.0       0.0
*MAT_NULL
$*     mid        ro        pc        mu     terod     cerod        ym        pr
         3  1000.000-1.000e+06  0.001000       0.0       0.0       0.0       0.0
*EOS_GRUNEISEN
$*   eosid         c        s1        s2        s3     gamao         a        e0
         1  1647.000  2.480000       0.0       0.0       0.0       0.0       0.0
$*      v0        
       0.0
*SET_PART_LIST
         1       0.0       0.0       0.0       0.0
         1
*END
