*KEYWORD
*TITLE
bird striking shells and bricks                                
$---+----1----+----2----+----3----+----4----+----5----+----6----+----7----+----8
*mat_add_erosion
3,888
$ erosion of part 3 based on von Mises stress
$888,888, 520., 888,888,888,888
$ erosion of part 3 based on max principal strain
888,888, 888, .01 ,888,888,888
$---+----1----+----2----+----3----+----4----+----5----+----6----+----7----+----8
*DATABASE_EXTENT_BINARY
         0         0         0         1         0         0         0         0
         0         0         0         0         0         0
*CONTROL_TERMINATION
 2.00000-3         0 0.3000000         0 0.0000000
*DATABASE_BINARY_D3PLOT
 4.00000-5 
*DATABASE_GLSTAT
 2.00000-5
*DATABASE_MATSUM
 2.00000-5
*DATABASE_SLEOUT
 2.00000-5
*CONTROL_HOURGLASS
         2 0.0000000
$---+----1----+----2----+----3----+----4----+----5----+----6----+----7----+----8
$---+----1----+----2----+----3----+----4----+----5----+----6----+----7----+----8
*CONTROL_TIMESTEP
 0.0000000 0.6700001         0 0.0000000 0.0000000         0         1         0
$---+----1----+----2----+----3----+----4----+----5----+----6----+----7----+----8
*PART
 
         1         1         1         1         
*PART
 
         2         2         2         
*PART
 
         3         3         3         
$---+----1----+----2----+----3----+----4----+----5----+----6----+----7----+----8
*MAT_NULL
         1  8.54E-05 -1.45E+01  4.00E-06   .20E+01  .200E+00
*EOS_TABULATED
         1  1.00E+00  0.00E+00  1.00E+00
$ EV 1-10
 1.000000015E-01 0.000000000E+00-9.529999644E-02-1.043999940E-01-1.123999953E-01
-1.177999973E-01-1.257999986E-01-1.310000122E-01-1.483999938E-01-2.326999903E-01
$ C 1-10
-5.000000000E+03 0.000000000E+00 2.940000000E+02 1.470000000E+03 2.940000000E+03
 4.410000000E+03 5.880000000E+03 7.350000000E+03 1.470000000E+04 7.350000000E+04
$ T 1-10
 0.000000000E+00 0.000000000E+00 0.000000000E+00 0.000000000E+00 0.000000000E+00
 0.000000000E+00 0.000000000E+00 0.000000000E+00 0.000000000E+00 0.000000000E+00
$---+----1----+----2----+----3----+----4----+----5----+----6----+----7----+----8
*MAT_PLASTIC_KINEMATIC
         2 7.34000-4 2.90000+7 0.3000000 50000.000 10000.000 0.0000000
 0.0000000 0.0000000 0.0500000
*MAT_PLASTIC_KINEMATIC
         3 7.34000-4 2.90000+7 0.3000000 500.00000 2.9e4     0.0000000
 0.0000000 0.0000000 0.0300000
$---+----1----+----2----+----3----+----4----+----5----+----6----+----7----+----8
*SECTION_SOLID
         1         0
*SECTION_SHELL
         2         0 0.0000000 0.0000000 0.0000000 0.0000000         0
 0.0200000 0.0200000 0.0200000 0.0200000 0.0000000
*SECTION_SOLID
         3         0
$---+----1----+----2----+----3----+----4----+----5----+----6----+----7----+----8
*CONTACT_ERODING_NODES_TO_SURFACE                
$ slave by node set ID
         1         2         4         2         0         0         0         0
 0.0000000 0.0000000 0.0000000 0.0000000 0.0000000         0 0.0000000 0.0000000
 0.0000000 0.0000000 0.0000000 0.0000000 0.0000000 0.0000000
         1         1
$---+----1----+----2----+----3----+----4----+----5----+----6----+----7----+----8
*set_node_list_generate
1
1,376
*SET_PART
         2
         2         3
$---+----1----+----2----+----3----+----4----+----5----+----6----+----7----+----8
*NODE
       1-2.309401035E+00-2.309401035E+00-2.309401035E+00       0       0
       2-2.039600611E+00-2.039600611E+00-2.039600611E+00       0       0
       3-1.769800305E+00-1.769800305E+00-1.769800305E+00       0       0
       4-1.500000000E+00-1.500000000E+00-1.500000000E+00       0       0
       5-2.593648434E+00-1.595611572E+00-2.593648434E+00       0       0
       6-2.229098797E+00-1.397074342E+00-2.229098797E+00       0       0
       7-1.864549398E+00-1.198537111E+00-1.864549398E+00       0       0
       8-1.500000000E+00-1.000000000E+00-1.500000000E+00       0       0
       9-2.769110680E+00-8.148934841E-01-2.769110680E+00       0       0
      10-2.346073866E+00-7.099289298E-01-2.346073866E+00       0       0
      11-1.923036933E+00-6.049644351E-01-1.923036933E+00       0       0
      12-1.500000000E+00-5.000000000E-01-1.500000000E+00       0       0
      13-2.828427076E+00 0.000000000E+00-2.828427076E+00       0       0
      14-2.385617971E+00 0.000000000E+00-2.385617971E+00       0       0
      15-1.942808986E+00 0.000000000E+00-1.942808986E+00       0       0
      16-1.500000000E+00 0.000000000E+00-1.500000000E+00       0       0
      17-2.593648434E+00-2.593648434E+00-1.595611572E+00       0       0
      18-2.229098797E+00-2.229098797E+00-1.397074342E+00       0       0
      19-1.864549398E+00-1.864549398E+00-1.198537111E+00       0       0
      20-1.500000000E+00-1.500000000E+00-1.000000000E+00       0       0
$ ... 1261 like lines cut
*ELEMENT_SOLID
       1       1       1       2       6       5      17      18      22      21
       2       1       2       3       7       6      18      19      23      22
       3       1       3       4       8       7      19      20      24      23
       4       1       5       6      10       9      21      22      26      25
       5       1       6       7      11      10      22      23      27      26
       6       1       7       8      12      11      23      24      28      27
       7       1       9      10      14      13      25      26      30      29
       8       1      10      11      15      14      26      27      31      30
       9       1      11      12      16      15      27      28      32      31
      10       1      17      18      22      21      33      34      38      37
      11       1      18      19      23      22      34      35      39      38
      12       1      19      20      24      23      35      36      40      39
      13       1      21      22      26      25      37      38      42      41
      14       1      22      23      27      26      38      39      43      42
      15       1      23      24      28      27      39      40      44      43
      16       1      25      26      30      29      41      42      46      45
      17       1      26      27      31      30      42      43      47      46
      18       1      27      28      32      31      43      44      48      47
      19       1      33      34      38      37      49      50      54      53
      20       1      34      35      39      38      50      51      55      54
$ ... 796 like lines cut
*ELEMENT_SHELL
       1       2     377     388     389     378
       2       2     378     389     390     379
       3       2     379     390     391     380
       4       2     380     391     392     381
       5       2     381     392     393     382
       6       2     382     393     394     383
       7       2     383     394     395     384
       8       2     384     395     396     385
       9       2     385     396     397     386
      10       2     386     397     398     387
      11       2     388     399     400     389
      12       2     389     400     401     390
      13       2     390     401     402     391
      14       2     391     402     403     392
      15       2     392     403     404     393
      16       2     393     404     405     394
      17       2     394     405     406     395
      18       2     395     406     407     396
      19       2     396     407     408     397
      20       2     397     408     409     398
$ ... 80 like lines cut
*INITIAL_VELOCITY_NODE
         1 0.0000000-7000.0000 0.0000000
         2 0.0000000-7000.0000 0.0000000
         3 0.0000000-7000.0000 0.0000000
         4 0.0000000-7000.0000 0.0000000
         5 0.0000000-7000.0000 0.0000000
         6 0.0000000-7000.0000 0.0000000
         7 0.0000000-7000.0000 0.0000000
         8 0.0000000-7000.0000 0.0000000
         9 0.0000000-7000.0000 0.0000000
        10 0.0000000-7000.0000 0.0000000
        11 0.0000000-7000.0000 0.0000000
        12 0.0000000-7000.0000 0.0000000
        13 0.0000000-7000.0000 0.0000000
        14 0.0000000-7000.0000 0.0000000
        15 0.0000000-7000.0000 0.0000000
        16 0.0000000-7000.0000 0.0000000
        17 0.0000000-7000.0000 0.0000000
        18 0.0000000-7000.0000 0.0000000
        19 0.0000000-7000.0000 0.0000000
        20 0.0000000-7000.0000 0.0000000
$ ... 1261 like lines cut
*END
