$# LS-DYNA Keyword file created by LS-PrePost 2.4 - 10Nov2010(17:21)
$# Created on Dec-8-2010 (12:09:20)
$# units: kg, mm, ms, kN, GPa
$#
*KEYWORD  
*TITLE
$# title
Random fatigue analysis: 2014-T6 Al
$===============================================================================
$                          please complete the keywords
$-------------------------------------------------------------------------------
*FREQUENCY_DOMAIN_RANDOM_VIBRATION_FATIGUE
$#   mdmin     mdmax     fnmin     fnmax    restrt              restrm
         1        15        0.    90000.
$#   dampf     lcdam     lctyp    dmpmas    dmpstf    dmptyp
      0.03
$#  vaflag    method      unit      umlt     vapsd     varms     napsd     ncpsd
         1         1         0                   1         1
$#   ldtyp   ipanelu   ipanelv    temper              dsflag
                              
$#     sid     stype       dof     ldpsd     ldvel     ldflw     ldspn       cid
                             3      2001
$#    mftg      nftg    sntype    texpos     strsf     inftg
         1         1             8.64e+8
$#     pid      lcid     ptype     ltype         a         b    sthres    snlimt
      4075        -1                        1.e+06         3                   1
*DATABASE_FREQUENCY_BINARY_D3PSD
$#  binary
         1
$#    fmin      fmax     nfreq    fspace    lcfreq
     0.100     2.000         5
*DATABASE_FREQUENCY_BINARY_D3RMS
$#  binary
         1
*DATABASE_FREQUENCY_BINARY_D3FTG
$#  binary
         1
$===============================================================================
*BOUNDARY_SPC_SET
$#    nsid       cid      dofx      dofy      dofz     dofrx     dofry     dofrz
         1         0         1         1         1         1         1         1
*SET_NODE_LIST_TITLE
NODESET(SPC) 1
$#     sid       da1       da2       da3       da4
         1     0.000     0.000     0.000     0.000
$#    nid1      nid2      nid3      nid4      nid5      nid6      nid7      nid8
    434338    434339    434340    434341    434342    434343    434344    434345
    434346    434349    434350    434351    434352    434353    434356    434357
    434358    434359    434360    434361    434362    434363    434364    434365
    434366    434367    434368    434369    434370    434371    434372    434373
    434374    434375    434376    434377    434378    434379    434380    434381
    434382    434383    434384    434385    434386    434387    434388    434389
    434390    434391    434392    434393    434394    434395    434396    434397
    434398    434454    434455    434456    434457    434458    434459    434460
    434461    434462    434463    434464    434465    434466    434467    434468
    434469    434470    434471    434522    434523    434524    434525    434526
    434527    434528    434529    434631    434632    434633    434634    434635
    434636    434637    434638    434639    434640    434641    434642    434643
    434644    434645    434646    434647    434648    434649    434650    434651
    434652    434653    434654    434655    434656    434657    434658    434659
    434660    434661    434662    434663    434664    434665    434666    434667
    434668    434669    434670    434671    434672    434673    434674    434675
    434676    434677    434678    434680    434681    434715    434716    434717
    434718    434719    434720    434721    434722    434723    434724    434725
    434726    434727    434728    434729    434730    434732    434733    434734
    434736    434737    434748    434749    434750    434828    434829    434831
$ ... 42 like lines cut
*CONTROL_IMPLICIT_EIGENVALUE
$#    neig    center     lflag    lftend     rflag    rhtend    eigmth    shfscl
        15     0.000         0     0.000         0     0.000         0     0.000
$#  isolid     ibeam    ishell   itshell    stress
         0         0         0         0         1
*CONTROL_IMPLICIT_GENERAL
$#  imflag       dt0    imform      nsbs       igs     cnstn      form    zero_v
         1  1.000000         0         0         0         0         0         0
*CONTROL_IMPLICIT_NONLINEAR
$#  nsolvr    ilimit    maxref     dctol     ectol  not used     lstol      rssf
         1         0         0     0.000     0.000     0.000     0.000     0.000
$#   dnorm    diverg     istif   nlprint
         0         0         0         0
$#  arcctl    arcdir    arclen    arcmth    arcdmp
         0         0     0.000         1         2
*CONTROL_STRUCTURED
*CONTROL_TERMINATION
$#  endtim    endcyc     dtmin    endeng    endmas
  1.000000         0     0.000     0.000     0.000
*DATABASE_DEFORC
$#      dt    binary      lcur     ioopt
  0.100000         0         0         1
*DATABASE_GLSTAT
$#      dt    binary      lcur     ioopt
  0.100000         0         0         1
*DATABASE_JNTFORC
$#      dt    binary      lcur     ioopt
  0.100000         0         0         1
*DATABASE_MATSUM
$#      dt    binary      lcur     ioopt
  1.000000         0         0         1
*DATABASE_NODOUT
$#      dt    binary      lcur     ioopt      dthf     binhf
  0.100000         0         0         1     0.000         0
*DATABASE_RWFORC
$#      dt    binary      lcur     ioopt
  1.000000         0         0         1
*DATABASE_SECFORC
$#      dt    binary      lcur     ioopt
  0.100000         0         0         1
*DATABASE_SSSTAT
$#      dt    binary      lcur     ioopt
  0.100000         0         0         1
*DATABASE_BINARY_D3PLOT
$$ DT/CYCL      LCDT      BEAM     NPLTC
$#      dt      lcdt      beam     npltc    psetid
  5.000000         0         0         0         0
$#   ioopt
         0
*ELEMENT_SHELL
$#   eid     pid      n1      n2      n3      n4      n5      n6      n7      n8
  479590    4075  434225  434226  434228  434692       0       0       0       0
  479591    4075  434228  434229  434513  434692       0       0       0       0
  479592    4075  434229  434230  434514  434513       0       0       0       0
  479593    4075  434230  434231  434515  434514       0       0       0       0
  479594    4075  434231  434232  434516  434515       0       0       0       0
  479595    4075  434232  434233  434517  434516       0       0       0       0
  479596    4075  434233  434234  434518  434517       0       0       0       0
  479597    4075  434234  434235  434519  434518       0       0       0       0
  479598    4075  434235  434236  434520  434519       0       0       0       0
  479599    4075  434236  434237  434521  434520       0       0       0       0
  479600    4075  434346  434227  434347  434522       0       0       0       0
  479601    4075  434345  434346  434522  434523       0       0       0       0
  479602    4075  434344  434345  434523  434524       0       0       0       0
  479603    4075  434343  434344  434524  434525       0       0       0       0
  479604    4075  434342  434343  434525  434526       0       0       0       0
  479605    4075  434341  434342  434526  434527       0       0       0       0
  479606    4075  434340  434341  434527  434528       0       0       0       0
  479607    4075  434339  434340  434528  434529       0       0       0       0
  479608    4075  434338  434339  434529  434715       0       0       0       0
  479609    4075  434337  434338  434715  434531       0       0       0       0
$ ... 1845 like lines cut
*NODE
$#   nid               x               y               z      tc      rc
  434224    3266.4460449    -167.3549194     555.2623901       0       0
  434225    3269.9052734    -167.3833160     558.4231567       0       0
  434226    3271.6640625    -170.6271057     560.7661133       0       0
  434227    3059.7229004    -177.2767792     504.6231079       0       0
  434228    3271.6765137    -167.2699280     563.6250000       0       0
  434229    3271.8767090    -163.7086639     566.2227173       0       0
  434230    3272.1638184    -160.2031097     568.8868408       0       0
  434231    3272.4948730    -156.9845886     571.8824463       0       0
  434232    3272.8474121    -154.3338470     575.3806152       0       0
  434233    3273.2233887    -152.4529572     579.3486328       0       0
  434234    3273.6196289    -151.1608887     583.5469971       0       0
  434235    3274.0173340    -150.8641510     587.9287109       0       0
  434236    3274.4526367    -150.7312927     592.3179321       0       0
  434237    3274.9643555    -150.6716309     596.7003784       0       0
  434238    3275.5305176    -150.6506653     601.0767212       0       0
  434239    3276.0878906    -150.6525421     605.4535522       0       0
  434240    3276.5759277    -150.6218109     609.8389893       0       0
  434241    3277.0168457    -150.6669922     614.2295532       0       0
  434242    3277.4965820    -150.7003479     618.6159668       0       0
  434243    3278.0141602    -150.6546021     622.9981079       0       0
$ ... 1952 like lines cut
*PART
$HMNAME COMPS    4074Recliner B_817
$HMCOLOR COMPS    4074      10
$# title
Recliner Bkt i/b
$#     pid     secid       mid     eosid      hgid      grav    adpopt      tmid
      4075    102760      4204         0         0         0         0         0
*SECTION_SHELL
$HMNAME PROPS  102760SectShll804
$#   secid    elform      shrf       nip     propt   qr/irid     icomp     setyp
    102760        18  1.000000         3         0         0         0         0
$#      t1        t2        t3        t4      nloc     marea      idof    edgset
  2.500000  2.500000  2.500000  2.500000     0.000     0.000     0.000         0
*MAT_ELASTIC
$#     mid        ro         e        pr        da        db  not used
      4204 2.8000E-6 72.400000  0.330000 
*DEFINE_CURVE
$#    lcid      sidr       sfa       sfo      offa      offo    dattyp
      2001         0  1.000000       3.0     0.000     0.000         0
          0.10000000           0.09604
          2.00000000           0.09604
*END
