*KEYWORD
*TITLE
Simply Supported Square Plate: Out-of-Plane Vibration (thick shell mesh)
*CONTROL_IMPLICIT_EIGENVALUE
$#    neig    center     lflag    lftend     rflag    rhtend    eigmth    shfscl
        20       0.0         0       0.0         0       0.0         0       0.0
*CONTROL_IMPLICIT_GENERAL
$#  imflag       dt0    imform      nsbs       igs     cnstn      form
         1       0.0
*CONTROL_SHELL
$#  wrpang     esort     irnxx    istupd    theory       bwc     miter      proj
  20.00000         0         0         0         2         2         1
$# rotascl    intgrd    lamsht    cstyp6    tshell    nfail1    nfail4
       0.0         1
*CONTROL_TERMINATION
$#  endtim    endcyc     dtmin    endeng    endmas
  1.000000         0       0.0       0.0       0.0
*DATABASE_BINARY_D3PLOT
$# dt/cycl   lcdt/nr      beam     npltc    psetid
  1.000000
*ELEMENT_TSHELL
$#   eid     pid      n1      n2      n3      n4      n5      n6      n7      n8
       1       1       1      37      41       5       2      38      42       6
       2       1      37      73      77      41      38      74      78      42
       3       1      73     109     113      77      74     110     114      78
       4       1     109     145     149     113     110     146     150     114
       5       1     145     181     185     149     146     182     186     150
       6       1     181     217     221     185     182     218     222     186
       7       1     217     253     257     221     218     254     258     222
       8       1     253     289     293     257     254     290     294     258
       9       1       5      41      45       9       6      42      46      10
      10       1      41      77      81      45      42      78      82      46
      11       1      77     113     117      81      78     114     118      82
      12       1     113     149     153     117     114     150     154     118
      13       1     149     185     189     153     150     186     190     154
      14       1     185     221     225     189     186     222     226     190
      15       1     221     257     261     225     222     258     262     226
      16       1     257     293     297     261     258     294     298     262
      17       1       9      45      49      13      10      46      50      14
      18       1      45      81      85      49      46      82      86      50
      19       1      81     117     121      85      82     118     122      86
      20       1     117     153     157     121     118     154     158     122
$ ... 172 like lines cut
*NODE
$#   nid               x               y               z      tc      rc
       1             0.0             0.0             0.0       3
       2             0.0             0.0      0.33333334
       3             0.0             0.0      0.66666669
       4             0.0             0.0      1.00000000
       5             0.0      1.25000000             0.0       3
       6             0.0      1.25000000      0.33333334
       7             0.0      1.25000000      0.66666669
       8             0.0      1.25000000      1.00000000
       9             0.0      2.50000000             0.0       3
      10             0.0      2.50000000      0.33333334
      11             0.0      2.50000000      0.66666669
      12             0.0      2.50000000      1.00000000
      13             0.0      3.75000000             0.0       3
      14             0.0      3.75000000      0.33333334
      15             0.0      3.75000000      0.66666669
      16             0.0      3.75000000      1.00000000
      17             0.0      5.00000000             0.0       3
      18             0.0      5.00000000      0.33333334
      19             0.0      5.00000000      0.66666669
      20             0.0      5.00000000      1.00000000
$ ... 304 like lines cut
*BOUNDARY_SPC_SET
$#nid/nsid       cid      dofx      dofy      dofz     dofrx     dofry     dofrz
         1         0         0         0         1
*PART
$# title                                                                        
material type # 1  (Elastic)                                                    
$#     pid     secid       mid     eosid      hgid      grav    adpopt      tmid
         1         1         1         0         1
*SECTION_TSHELL
$#   secid    elform      shrf       nip     propt   qr/irid     icomp    tshear
         1         2       0.0         5         0       0.0
*MAT_ELASTIC
$#     mid        ro         e        pr        da        db  not used
         1  8000.0002.0000e+11  0.300000       0.0       0.0       0.0
*HOURGLASS
$#    hgid       ihq        qm       ibq        q1        q2        qb        qw
         1         4       0.1         0       0.0       0.0       0.0       0.0
*SET_NODE_LIST
$#     sid       da1       da2       da3       da4    solver
         1       0.0       0.0       0.0       0.0
$#    nid1      nid2      nid3      nid4      nid5      nid6      nid7      nid8
         1        37        73       109       145       181       217       253
       289       293       297       301       305       309       313       317
       321       285       249       213       177       141       105        69
        33        29        25        21        17        13         9         5
*END