*KEYWORD_ID
JOINT_SCREW
$ Example provided by DYNAmore for
$ LS-DYNA
$ A Program for Nonlinear Dynamic Analysis of Structures in Three Dimensions
$ by Livermore Software Technology Corp. (www.lstc.com)
$
$ Please feel free to contact us with any suggestions, comments or questions:
$ email: examples(at)dynamore.de
$
$ Copyright (c) 2014 DYNAmore GmbH (www.dynamore.de)
$ Copying for non-commercial usage allowed, if this notice is included.
$
$ system of units:
$ mm, ms, kg, kN
$
*TITLE
SHOW CASE: JOINT SCREW
$ =============
$ CONTROL cards
$ =============
*CONTROL_MPP_IO_NODUMP
$
*CONTROL_ACCURACY
$#     osu       inn    pidosu
         1         4         0
*CONTROL_CONTACT
$#  slsfac    rwpnal    islchk    shlthk    penopt    thkchg     orien    enmass
       0.1       0.0         1         0         0         0         1         0
$#  usrstr    usrfrc     nsbcs    interm     xpene     ssthk      ecdt   tiedprj
         0         0         0         0       4.0         0         0         0
$#   sfric     dfric       edc       vfc        th     th_sf    pen_sf
       0.0       0.0       0.0       0.0       0.0       0.0       0.0
$#  ignore    frceng   skiprwg    outseg   spotstp   spotdel   spothin
         2         0         0         0         0         0       0.0
$#    isym    nserod    rwgaps    rwgdth     rwksf      icov    swradf    ithoff
         0         0         0       0.0       1.0         0       0.0         0
*CONTROL_ENERGY
$#    hgen      rwen    slnten     rylen
         2         2         2         2
*CONTROL_SHELL
$#  wrpang     esort     irnxx    istupd    theory       bwc     miter      proj
      20.0         1        -1         0         2         2         1         0
$# rotascl    intgrd    lamsht    cstyp6    tshell
       1.0         0         0         1         0
$# psstupd   sidt4tu     cntco    itsflg    irquad
         0         0         0         0         2
*CONTROL_SOLID
$#   esort   fmatrix   niptets    swlocl    psfail   t10jtol
         1         0         4         2         0
*CONTROL_TERMINATION
$#  endtim    endcyc     dtmin    endeng    endmas
     100.0         0       0.0       0.0       0.0         0
*CONTROL_TIMESTEP
$#  dtinit    tssfac      isdo    tslimt     dt2ms      lctm     erode     ms1st
       0.0       0.9         0       0.0   -3.5E-4         0         0         0
$ ==============
$ DATABASE cards
$ ==============
*DATABASE_JNTFORC
$:      dt    binary      lcur     ioopt
    5.0E-2         1         0         1
*DATABASE_RCFORC
$:      dt    binary      lcur     ioopt
    5.0E-2         1         0         1
*DATABASE_BINARY_D3PLOT
$#      dt      lcdt      beam     npltc    psetid
       1.0         0         0         0         0
$ ====================
$ MAT (Material) cards
$ ====================
*MAT_PIECEWISE_LINEAR_PLASTICITY
$#     mid        ro         e        pr      sigy      etan      fail      tdel
   1000000   7.86E-6     210.0       0.3      0.25       0.0       0.0       0.0
$#       c         p      lcss      lcsr        vp
       0.0       0.0   1000001         0       0.0
$#    eps1      eps2      eps3      eps4      eps5      eps6      eps7      eps8
       0.0       0.0       0.0       0.0       0.0       0.0       0.0       0.0
$#     es1       es2       es3       es4       es5       es6       es7       es8
       0.0       0.0       0.0       0.0       0.0       0.0       0.0       0.0
*MAT_RIGID
$#     mid        ro         e        pr         n    couple         m     alias
  10000006   7.85E-6     210.0      0.33       0.0       0.0       0.0
$#     cmo      con1      con2
$       1.0       7.0       7.0
       1.0       5.0       7.0
$# lco or a1      a2        a3        v1        v2        v3
         0       0.0       0.0       0.0       0.0       0.0
*MAT_RIGID
$#     mid        ro         e        pr         n    couple         m     alias
  10000007   7.85E-6     210.0      0.33       0.0       0.0       0.0
$#     cmo      con1      con2
       1.0       5.0       5.0
$# lco or a1      a2        a3        v1        v2        v3
         0       0.0       0.0       0.0       0.0       0.0
$ =============
$ SECTION cards
$ =============
*SECTION_SHELL
$#   secid    elform      shrf       nip     propt   qr/irid     icomp     setyp
   1000000         2     0.833         5       1.0       0.0         0         1
$#      t1        t2        t3        t4      nloc     marea      idof    edgset
       2.0       2.0       2.0       2.0       0.0       0.0       0.0         0
$
*SECTION_SOLID
$#   secid    elform       aet
  10000009         1         0
$ ===============
$ HOURGLASS cards
$ ===============
*HOURGLASS
$#    hgid       ihq        qm       ibq        q1        q2    qb/vdc        qw
   1000000         4       0.1         0       1.5    6.0E-2       0.1       0.1
$ ==========
$ PART cards
$ ==========
*PART
$# title

$#     pid     secid       mid     eosid      hgid      grav    adpopt      tmid
   1000000   1000000   1000000         0         0         0         0         0
*PART
$# title

$#     pid     secid       mid     eosid      hgid      grav    adpopt      tmid
   1000001   1000000   1000000         0         0         0         0         0
*PART
$# title

$#     pid     secid       mid     eosid      hgid      grav    adpopt      tmid
   1000002   1000000   1000000         0         0         0         0         0
*PART
$# title

$#     pid     secid       mid     eosid      hgid      grav    adpopt      tmid
   1000003   1000000   1000000         0         0         0         0         0
*PART
$# title

$#     pid     secid       mid     eosid      hgid      grav    adpopt      tmid
   1000004   1000000   1000000         0         0         0         0         0
*PART
$# title

$#     pid     secid       mid     eosid      hgid      grav    adpopt      tmid
   1000005   1000000   1000000         0         0         0         0         0
*PART
$# title

$#     pid     secid       mid     eosid      hgid      grav    adpopt      tmid
   1000006   1000000   1000000         0         0         0         0         0
*PART
$# title

$#     pid     secid       mid     eosid      hgid      grav    adpopt      tmid
   1000007   1000000   1000000         0         0         0         0         0
*PART
$# title
Screw in
$#     pid     secid       mid     eosid      hgid      grav    adpopt      tmid
  10000045  10000009  10000006         0         0         0         0         0
*PART
$# title
Screw out
$#     pid     secid       mid     eosid      hgid      grav    adpopt      tmid
  10000046  10000009  10000007         0         0         0         0         0
$ ==========
$ NODE cards
$ ==========
*NODE
$#   nid               x               y               z      tc      rc
 1000000             0.0       135.00000   -6.3173120E-6       0       0
 1000001             0.0       135.00000       49.999996       0       0
 1000002       50.000000       135.00000   -6.3173120E-6       0       0
 1000003             0.0       135.00000       99.999992       0       0
 1000004       50.000000       135.00000       49.999996       0       0
 1000005       100.00000       135.00000   -6.3173120E-6       0       0
 1000006             0.0       135.00002       149.99998       0       0
 1000007       50.000000       135.00000       99.999992       0       0
 1000008       100.00000       135.00000       49.999996       0       0
 1000009       150.00000       135.00000   -6.3173120E-6       0       0
 1000010             0.0       135.00002       200.00000       0       0
 1000011       50.000000       135.00002       149.99998       0       0
 1000012       100.00000       135.00000       99.999992       0       0
 1000013       150.00000       135.00000       49.999996       0       0
 1000014             0.0       135.00002       250.00000       0       0
 1000015       50.000000       135.00002       200.00000       0       0
 1000016       100.00000       135.00002       149.99998       0       0
 1000017       150.00000       135.00000       99.999992       0       0
 1000018             0.0       135.00002       300.00000       0       0
 1000019       50.000000       135.00002       250.00000       0       0
$ ... 3974 like lines cut
$#   nid               x               y               z      tc      rc
10045151       3895.0000       179.81171       142.80630       0       0
10045152       3895.0000       233.29193       108.38004       0       0
10045153       3895.0000       263.55197       212.22037       0       0
10045154       3895.0000       181.33853       210.00967       0       0
10045155       3895.0000       236.24191       316.82608       0       0
10045156       3895.0000       163.83652       277.76236       0       0
10045157       3895.0000       162.54710       390.74576       0       0
10045158       3895.0000       130.68655       335.79825       0       0
10045159       3895.0000       61.831200       418.69131       0       0
10045160       3895.0000       64.258568       336.25357       0       0
10045161       3895.0000      -40.745399       391.83218       0       0
10045162       3895.0000      -3.2779009       318.51553       0       0
10045163       3895.0000      -115.94873       317.35587       0       0
10045164       3895.0000      -61.065910       285.10611       0       0
10045165       3895.0000      -143.65997       213.38126       0       0
10045166       3895.0000      -61.392220       218.18594       0       0
10045167       3895.0000      -114.41232       109.77530       0       0
10045168       3895.0000      -43.300102       151.26456       0       0
10045169       3895.0000      -42.064827       38.714508       0       0
10045170       3895.0000      -10.509956       93.799957       0       0
$ ... 562 like lines cut
$ =============
$ ELEMENT cards
$ =============
*ELEMENT_SHELL
$#   eid     pid      n1      n2      n3      n4      n5      n6      n7      n8
 1000000 1000000 1000000 1000001 1000004 1000002
 1000001 1000000 1000002 1000177 1000176 1000000
 1000002 1000000 1000001 1000000 1000176 1000178
 1000003 1000000 1000177 1000180 1000179 1000176
 1000004 1000000 1000178 1000176 1000179 1000181
 1000005 1000000 1000184 1000185 1000182 1000183
 1000006 1000000 1000180 1000183 1000182 1000179
 1000007 1000000 1000181 1000179 1000182 1000185
 1000008 1000000 1000001 1000003 1000007 1000004
 1000009 1000000 1000003 1000001 1000178 1000186
 1000010 1000000 1000186 1000178 1000181 1000187
 1000011 1000000 1000188 1000189 1000185 1000184
 1000012 1000000 1000187 1000181 1000185 1000189
 1000013 1000000 1000002 1000004 1000008 1000005
 1000014 1000000 1000005 1000190 1000177 1000002
 1000015 1000000 1000190 1000191 1000180 1000177
 1000016 1000000 1000193 1000184 1000183 1000192
 1000017 1000000 1000191 1000192 1000183 1000180
 1000018 1000000 1000003 1000006 1000011 1000007
 1000019 1000000 1000006 1000003 1000186 1000194
$ ... 1688 like lines cut
$ =============
$ ELEMENT cards
$ =============
 1001708 1000003 1001565 1001569 1001877 1001869
 1001709 1000003 1001869 1001877 1001878 1001870
 1001710 1000003 1001879 1001868 1001860 1001871
 1001711 1000003 1001870 1001878 1001879 1001871
 1001712 1000003 1001562 1001566 1001570 1001567
 1001713 1000003 1001566 1001881 1001880 1001570
 1001714 1000003 1001566 1001562 1001872 1001881
 1001715 1000003 1001881 1001883 1001882 1001880
 1001716 1000003 1001881 1001872 1001873 1001883
 1001717 1000003 1001884 1001885 1001875 1001874
 1001718 1000003 1001883 1001885 1001884 1001882
 1001719 1000003 1001883 1001873 1001875 1001885
 1001720 1000003 1001563 1001567 1001571 1001568
 1001721 1000003 1001886 1001874 1001866 1001876
 1001722 1000003 1001564 1001568 1001572 1001569
 1001723 1000003 1001569 1001572 1001887 1001877
 1001724 1000003 1001877 1001887 1001888 1001878
 1001725 1000003 1001889 1001876 1001868 1001879
 1001726 1000003 1001878 1001888 1001889 1001879
 1001727 1000003 1001567 1001570 1001573 1001571
$ ... 2272 like lines cut
*ELEMENT_SOLID
$#   eid     pid      n1      n2      n3      n4      n5      n6      n7      n8
10076725100000451004515310058967100589611005897410058964100589581005895710058963
10076726100000451005895810058964100451541005896510058957100589631005896810058959
10076727100000451005896710045152100589751005896110058958100589661005896210058957
10076728100000451005896610058958100589651004515110058962100589571005895910058970
10076729100000451005897410058961100589721005773610058963100589571005896010058971
10076730100000451005896310058957100589601005897110058968100589591005896910057739
10076731100000451005896110058975100577371005897210058957100589621005897310058960
10076732100000451005895710058962100589731005896010058959100589701005773810058969
10076733100000451004515510058984100589801005898910058982100589771005897610058981
10076734100000451005897710058982100451561005898310058976100589811005898510058978
10076735100000451005898410045153100589741005898010058977100589641005896310058976
10076736100000451005896410058977100589831004515410058963100589761005897810058968
10076737100000451005898910058980100589881005774010058981100589761005897910058987
10076738100000451005898110058976100589791005898710058985100589781005898610057741
10076739100000451005898010058974100577361005898810058976100589631005897110058979
10076740100000451005897610058963100589711005897910058978100589681005773910058986
10076741100000451004515710058998100589941005900310058996100589911005899010058995
10076742100000451005899110058996100451581005899710058990100589951005899910058992
10076743100000451005899810045155100589891005899410058991100589821005898110058990
10076744100000451005898210058991100589971004515610058981100589901005899210058985
$ ... 316 like lines cut
$ ============
$ DEFINE cards
$ ============
*DEFINE_CURVE
$#    lcid      sidr       sfa       sfo      offa      offo    dattyp
   1000000         0       1.0       1.0       0.0       0.0         0
$#                a1                  o1
                 0.0                 0.0
        9.9999998E-3           1.0000000
           1000.0000           1.0000000
$
$
*DEFINE_CURVE
$: X axis : Effective plastic strain   (Units: Strain)
$: Y axis : Effective stress           (Units: Stress)
$#    lcid      sidr       sfa       sfo      offa      offo    dattyp
   1000001         0       1.0    1.0E-3       0.0       0.0         0
$#                a1                  o1
                 0.0           249.99998
        3.9000001E-2           301.99997
        8.6000003E-2           337.99997
          0.17400000           381.00000
          0.25500000           425.99997
          0.32900000           472.99997
          0.36500001           519.99994
          0.39899999           600.00000
           1.0000000           610.00000
$
$
*DEFINE_CURVE
$: Boundary Prescribed Motion 9000003 : Displacement vs time
$: X axis : Time                       (Units: Time)
$: Y axis : Prescribed displacement    (Units: Rotational displacement)
$#    lcid      sidr       sfa       sfo      offa      offo    dattyp
  10000007         0       0.0       0.0       0.0       0.0         0
$#                a1                  o1
                 0.0                 0.0
           6.0000000           1.0000000
           30.000000           5.0000000
           60.000000           5.0000000
           100.00000           15.000000
           600.00000           100.00000
$ ==============
$ BOUNDARY cards
$ ==============
*BOUNDARY_PRESCRIBED_MOTION_RIGID_ID
$#      id                                                               heading
   9000003Screw B
$#     pid       dof       vad      lcid        sf       vid     death     birth
  10000046         5         2  10000007       1.0         0    1.0E28       0.0
$ =================
$ CONSTRAINED cards
$ =================
*CONSTRAINED_JOINT_SCREW_ID
$#     jid                                                                 title
   9000002screw joint B
$#      n1        n2        n3        n4        n5        n6       rps      damp
  10059649  10059179  10059648  10059178  10057940  10057744       1.0       0.0
$#    parm      lcid      type        r1
      25.0         0         0       0.0
$ =============
$ CONTACT cards
$ =============
*CONTACT_AUTOMATIC_SINGLE_SURFACE_ID
$#     cid                                                                 title
   1000000
$#    ssid      msid     sstyp     mstyp    sboxid    mboxid       spr       mpr
         0         0         5         0         0         0         0         0
$#      fs        fd        dc        vc       vdc    penchk        bt        dt
       0.1       0.0       0.0       0.0      10.0         0       0.0    1.0E20
$#     sfs       sfm       sst       mst      sfst      sfmt       fsf       vsf
       1.0       1.0       0.0       0.0       1.0       1.0       1.0       1.0
$#    soft
         2
*END
