$# LS-DYNA Keyword file created by LS-PrePost 4.0 - 19Dec2012(07:00)
$# Created on Mar-5-2013 (09:45:50)
$# Units: ton, mm, s, N, MPa
*KEYWORD
*TITLE
$# title
NCAC 2001 Taurus Wheel Rim
$===============================================================================
$                          please complete the keywords
$-------------------------------------------------------------------------------
*FREQUENCY_DOMAIN_SSD
$#   mdmin     mdmax     fnmin     fnmax    restmd    restdp    lcflag    relatv
                            0.     3000.         0         0
$#   dampf     lcdam     lctyp    dmpmas    dmpstf    dmpflg
      0.01
$#                                                      nout     notyp      nova

$#     nid      ntyp       dof       vad       lc1       lc2       lc3       vid
                             3         3       100
*DATABASE_EXTENT_BINARY
$#   neiph     neips    maxint    strflg    sigflg    epsflg    rltflg    engflg
         0         0         0         1         0         0         0         0
$#  cmpflg    ieverp    beamip     dcomp      shge     stssz    n3thdt   ialemat
         0         0         0         0         0         0         0         0
$# nintsld   pkp_sen      sclp    unused     msscl     therm    intout    nodout
         0         0  1.000000         0         0         0    STRESS    STRESS
*DATABASE_FREQUENCY_BINARY_D3SSD
$#  binary
         1 
$#    fmin      fmax     nfreq    fspace    lcfreq
       10.     2000.       200
$===============================================================================
*NODE
$#   nid               x               y               z      tc      rc
       1      -886.41901      -874.64081       463.74130       0       0
       2      -896.30469      -874.65216       475.68314       0       0
       3      -907.00897      -874.66034       486.90213       0       0
       4      -918.47833      -874.66516       497.34116       0       0
       5      -930.65540      -874.66669       506.94754       0       0
       6      -943.47937      -874.66492       515.67303       0       0
       7      -956.88641      -874.65985       523.47394       0       0
       8      -970.80969      -874.65149       530.31134       0       0
       9      -985.17975      -874.63983       536.15118       0       0
      10       -999.9250      -874.62506       540.96436       0       0
      11      -1014.9718      -874.60712       544.72699       0       0
      12      -1030.2448      -874.58618       547.42053       0       0
      13      -1045.6672      -874.56238       549.03186       0       0
      14      -1061.1611      -874.53571       549.55334       0       0
      15      -877.40155      -874.62622       451.13797       0       0
      16      -869.10406      -874.60846       437.73846       0       0
      17      -861.69684      -874.58777       423.82550       0       0
      18      -855.26105      -874.56421       409.43484       0       0
      19      -849.87561      -874.53772       394.62567       0       0
      20      -845.60339      -874.50830       379.45740       0       0
$ ... 11805 like lines cut
*DATABASE_BINARY_D3PLOT
$#      dt      lcdt      beam     npltc    psetid
  1.000000         0         0         0         0
$#   ioopt
         0
*SECTION_SHELL_TITLE
SectShll_2000582
$#   secid    elform      shrf       nip     propt   qr/irid     icomp     setyp
         1        20     0.833         3         1         0         0         1
$#      t1        t2        t3        t4      nloc     marea      idof    edgset
  2.500000  2.500000  2.500000  2.500000     0.000     0.000     0.000         0
*CONTROL_SHELL
$#  wrpang     esort     irnxx    istupd    theory       bwc     miter      proj
 20.000000         2        -1         0         2         2         1         0
$# rotascl    intgrd    lamsht    cstyp6    tshell    nfail1    nfail4   psnfail
  1.000000         1         0         1         0         0         0         0
$# psstupd    irquad     cntco    itsflg    irquad
         0         0         0         0         2
*CONTROL_IMPLICIT_EIGENVALUE
$#    neig    center     lflag    lftend     rflag    rhtend    eigmth    shfscl
       100     0.000         0     0.000         0     0.000         2     0.000
$#  isolid     ibeam    ishell   itshell    mstres    evdump
         0         0         0         0         1         0
*CONTROL_IMPLICIT_GENERAL
$#  imflag       dt0    imform      nsbs       igs     cnstn      form    zero_v
         1  1.000000         2         0         2         0         0         0
*CONTROL_TERMINATION
$#  endtim    endcyc     dtmin    endeng    endmas
  1.000000         0     0.000     0.000     0.000
*ELEMENT_SHELL
$#   eid     pid      n1      n2      n3      n4      n5      n6      n7      n8
       1       1    2938    2975    2978    2977       0       0       0       0
       2       1    2892    2979    2982    2981       0       0       0       0
       3       1    2844    2983    2986    2985       0       0       0       0
       4       1    2798    2987    2990    2989       0       0       0       0
       5       1    2751    2991    2994    2993       0       0       0       0
       6       1    2728    2995    2998    2997       0       0       0       0
       7       1    2237    2999    3002    3001       0       0       0       0
       8       1    2209    3003    3006    3005       0       0       0       0
       9       1    2171    3007    3010    3009       0       0       0       0
      10       1    2115    3011    3014    3013       0       0       0       0
      11       1    2089    3015    3018    3017       0       0       0       0
      12       1    2146    3019    3022    3021       0       0       0       0
      13       1    1797    3023    3026    3025       0       0       0       0
      14       1    1769    3027    3030    3029       0       0       0       0
      15       1    1611    3031    3034    3033       0       0       0       0
      16       1    1679    3035    3038    3037       0       0       0       0
      17       1    1554    3039    3042    3041       0       0       0       0
      18       1    1625    3043    3046    3045       0       0       0       0
      19       1    1290    3047    3050    3049       0       0       0       0
      20       1    1283    3051    3054    3053       0       0       0       0
$ ... 11533 like lines cut
*SET_NODE_LIST
$#     sid       da1       da2       da3       da4    solver
         1     0.000     0.000     0.000     0.000          
$     nid1      nid2      nid3      nid4      nid5      nid6      nid7      nid8
$#    nid1      nid2      nid3      nid4      nid5      nid6      nid7      nid8
       233       320       830       822      1042         0         0         0
*SET_NODE_LIST_TITLE
SPC
$#     sid       da1       da2       da3       da4    solver
         2     0.000     0.000     0.000     0.000
$#    nid1      nid2      nid3      nid4      nid5      nid6      nid7      nid8
       938     10174       927     10130       348     11813       349     11614
       350     11618       351     11649       319     11459     11783       206
       205     11787       207     11816       208     11793       204     11740
       236     11736       235     10135       928     10140       929     10144
       930     10148       931     10152       932     10156       933     10160
       934     10163       935     10166       936     10169       937     10172
*DATABASE_HISTORY_NODE_SET
$#     id1       id2       id3       id4       id5       id6       id7       id8
         1         0         0         0         0         0         0         0
*DEFINE_CURVE
$#    lcid      sidr       sfa       sfo      offa      offo    dattyp
       100         0     0.000    9.81e3     0.000     0.000         0
$#                a1                  o1
          10.0000000            1.000000
        2000.0000000            1.000000
*BOUNDARY_SPC_SET
$#    nsid       cid      dofx      dofy      dofz     dofrx     dofry     dofrz
         2         0         1         1         1         1         1         1
*MAT_ELASTIC_TITLE
MATL1_2000646
$#     mid        ro         e        pr        da        db  not used
         1 1.4200E-8 2.1000E+5  0.300000     0.000     0.000         0
*PART
$# title
MC - rim - front- R
$#     pid     secid       mid     eosid      hgid      grav    adpopt      tmid
         1         1         1         0         0         0         0         0
*END
